&global_metadata 
!
! GLOBAL METADATA FOR NETCDF CORDEX-CMIP6 COMPLIANCE
! Use single quotes for strings containing spaces or special characters.
!
conventions         =  'CF-1.11'
activity_id         =  'DD'
contact             =  'Rita Cardoso, rmcardoso@fc.ul.pt; Pedro Soares, pmsoares@fc.ul.pt'
cordex_domain       =  'EUR-11'
domain_name         =  'Europe'
domain_id           =  'EUR-12'
driving_inst_id     =  'MPI-M'
driving_source_id   =  'MPI-ESM1-2-HR'
driving_variant     =  'r1i1p1'
experiment_id       =  'ssp370'
experiment          =  'gap-filling scenario reaching 7.0 based on SSP3' 
further_info_url    =  'https://github.com/CORDEX-WRF-community/euro-cordex-cmip6'
grid_desc           =  'Rotated-pole latitude-longitude with 0.11 degree grid spacing'
institution         =  'Instituto Dom Luiz - Universidade de Lisboa'
institution_id      =  'IDL-FCUL'
label               =  'WRF V4.5.1-Q'
label_ext           =  'Weather Research and Forecasting model version 4.5.1, CORDEX WRF Community configuration Q'
license             =  'https://cordex.org/data-access/cordex-cmip6-data/cordex-cmip6-terms-of-use'
mip_era             =  'CMIP6'
product             =  'model-output'
project_id          =  'CORDEX-CMIP6. CMIP6-driven Coordinated Regional Climate Downscaling Experiment'
release_year        =  '2022'
source_desc         =  'Weather Research and Forecasting model version 4.5.1, CORDEX WRF Community configuration Q'
source_id           =  'WRF451Q'
source_type         =  'ARMC'
version_real        =  'v1-r1'
sim_start_date      =  '2015-01-01_00:00:00'

! Numeric Grid Dimensions and Spacing
dx_val              =  12229.52
dy_val              =  12229.52
we_dim              =  445
sn_dim              =  433
bt_dim              =  54

! Long text field (Driving Source)
driving_source      =  'MPI-ESM1.2-HR (2017): aerosol: none, prescribed MACv2-SP; atmos: ECHAM6.3 (spectral T127; 384 x 192 longitude/latitude; 95 levels; top level 0.01 hPa); atmosChem: none; land: JSBACH3.20; landIce: none/prescribed; ocean: MPIOM1.63 (tripolar TP04, approximately 0.4deg; 802 x 404 longitude/latitude; 80 levels); ocnBgchem: HAMOCC6; seaIce: unnamed (thermodynamic sea ice model)'
/
